
     RDKit          3D

  0  0  0  0  0  0  0  0  0  0999 V3000
M  V30 BEGIN CTAB
M  V30 COUNTS 31 33 0 0 0
M  V30 BEGIN ATOM
M  V30 1 O -0.920582 0.750795 -0.80315 0
M  V30 2 C -1.4624 -0.329324 -0.44012 0
M  V30 3 C -1.49219 -0.679986 0.99865 0
M  V30 4 C -0.568905 -0.311575 1.90042 0
M  V30 5 C 0.723091 0.333887 1.58425 0
M  V30 6 C 1.18247 1.39497 2.40796 0
M  V30 7 C 2.42664 2.00813 2.16592 0
M  V30 8 C 3.18743 1.52192 1.10847 0
M  V30 9 C 4.42442 1.87618 0.616628 0
M  V30 10 N 4.71394 1.0614 -0.427519 0
M  V30 11 N 3.70107 0.217877 -0.597072 0
M  V30 12 C 2.7672 0.487152 0.327742 0
M  V30 13 C 1.54501 -0.146153 0.535136 0
M  V30 14 C -2.11887 -1.19117 -1.4561 0
M  V30 15 C -2.41641 -0.675567 -2.73249 0
M  V30 16 C -3.02686 -1.48037 -3.69927 0
M  V30 17 C -3.34201 -2.80927 -3.40816 0
M  V30 18 F -3.93261 -3.58803 -4.34782 0
M  V30 19 C -3.04381 -3.33681 -2.14999 0
M  V30 20 C -2.43399 -2.53657 -1.17883 0
M  V30 21 H -2.35728 -1.22 1.36331 0
M  V30 22 H -0.779508 -0.508178 2.94491 0
M  V30 23 H 0.572041 1.74916 3.22957 0
M  V30 24 H 2.77956 2.82327 2.78434 0
M  V30 25 H 5.07165 2.66052 0.985796 0
M  V30 26 H 3.66132 -0.522304 -1.3324 0
M  V30 27 H 1.24951 -0.985158 -0.0822378 0
M  V30 28 H -2.18473 0.352458 -2.98186 0
M  V30 29 H -3.25512 -1.07161 -4.67526 0
M  V30 30 H -3.28057 -4.36923 -1.92673 0
M  V30 31 H -2.19643 -2.97976 -0.220802 0
M  V30 END ATOM
M  V30 BEGIN BOND
M  V30 1 2 1 2
M  V30 2 1 2 3
M  V30 3 2 3 4
M  V30 4 1 4 5
M  V30 5 2 5 6
M  V30 6 1 6 7
M  V30 7 2 7 8
M  V30 8 1 8 9
M  V30 9 2 9 10
M  V30 10 1 10 11
M  V30 11 1 11 12
M  V30 12 2 12 13
M  V30 13 1 2 14
M  V30 14 2 14 15
M  V30 15 1 15 16
M  V30 16 2 16 17
M  V30 17 1 17 18
M  V30 18 1 17 19
M  V30 19 2 19 20
M  V30 20 1 12 8
M  V30 21 1 13 5
M  V30 22 1 20 14
M  V30 23 1 3 21
M  V30 24 1 4 22
M  V30 25 1 6 23
M  V30 26 1 7 24
M  V30 27 1 9 25
M  V30 28 1 11 26
M  V30 29 1 13 27
M  V30 30 1 15 28
M  V30 31 1 16 29
M  V30 32 1 19 30
M  V30 33 1 20 31
M  V30 END BOND
M  V30 END CTAB
M  END
$$$$
